version 2
run General-0-20130406-12:05:04-4448
attr configname General
attr datetime 20130406-12:05:04
attr experiment General
attr inifile omnetpp.ini
attr iterationvars ""
attr iterationvars2 $repetition=0
attr measurement ""
attr network Dumbell
attr processid 4448
attr repetition 0
attr replication #0
attr resultdir results
attr runnumber 0
attr seedset 0

statistic Dumbell.host[0] 	cRate:stats
field count 10904
field mean 26930075.495689
field stddev 5994806.8917822
field sum 293645543204.99
field sqrsum 8.2997254960122e+018
field min 10000000
field max 72495083.864891
attr interpolationmode  sample-hold
attr source  dataRate
attr title  "dataRate, stats"
statistic Dumbell.host[0] 	Rtt:stats
field count 3737
field mean 0.00065376785233878
field stddev 0.0001488467352091
field sum 2.44313046419
field sqrsum 0.0016800125463328
field min 0.000297447546
field max 0.001536897523
attr interpolationmode  linear
attr source  RTT
attr title  "RTT measurment, stats"
statistic Dumbell.host[0] 	Rtt:histogram
field count 3737
field mean 0.00065376785233878
field stddev 0.0001488467352091
field sum 2.44313046419
field sqrsum 0.0016800125463328
field min 0.000297447546
field max 0.001536897523
attr interpolationmode  linear
attr source  RTT
attr title  "RTT measurment, histogram"
bin	-INF	0
bin	-0.0002497798265	0
bin	-0.0001703719443	0
bin	-9.0964062099999e-005	0
bin	-1.1556179899999e-005	0
bin	6.7851702300001e-005	0
bin	0.0001472595845	0
bin	0.0002266674667	2
bin	0.0003060753489	26
bin	0.0003854832311	161
bin	0.0004648911133	610
bin	0.0005442989955	982
bin	0.0006237068777	923
bin	0.0007031147599	486
bin	0.0007825226421	231
bin	0.0008619305243	120
bin	0.0009413384065	81
bin	0.0010207462887	63
bin	0.0011001541709	21
bin	0.0011795620531	13
bin	0.0012589699353	9
bin	0.0013383778175	5
bin	0.0014177856997	3
bin	0.0014971935819	1
bin	0.0015766014641	0
bin	0.0016560093463	0
bin	0.0017354172285	0
bin	0.0018148251107	0
bin	0.0018942329929	0
bin	0.0019736408751	0
bin	0.0020530487573	0
bin	0.0021324566395	0
statistic Dumbell.host[1] 	cRate:stats
field count 10353
field mean 25654415.042299
field stddev 6302978.5817374
field sum 265600158932.93
field sqrsum 7.2250761963131e+018
field min 10000000
field max 71220031.25
attr interpolationmode  sample-hold
attr source  dataRate
attr title  "dataRate, stats"
statistic Dumbell.host[1] 	Rtt:stats
field count 3294
field mean 0.00065488770847602
field stddev 0.00014352318777496
field sum 2.15720011172
field sqrsum 0.0014805560334665
field min 0.00027997140399999
field max 0.001521158219
attr interpolationmode  linear
attr source  RTT
attr title  "RTT measurment, stats"
statistic Dumbell.host[1] 	Rtt:histogram
field count 3294
field mean 0.00065488770847602
field stddev 0.00014352318777496
field sum 2.15720011172
field sqrsum 0.0014805560334665
field min 0.00027997140399999
field max 0.001521158219
attr interpolationmode  linear
attr source  RTT
attr title  "RTT measurment, histogram"
bin	-INF	0
bin	-0.000335541751	0
bin	-0.00025302175233334	0
bin	-0.00017050175366667	0
bin	-8.7981755000002e-005	0
bin	-5.4617563333353e-006	0
bin	7.7058242333331e-005	0
bin	0.000159578241	0
bin	0.00024209823966666	11
bin	0.00032461823833333	55
bin	0.000407138237	216
bin	0.00048965823566666	635
bin	0.00057217823433333	939
bin	0.000654698233	719
bin	0.00073721823166666	350
bin	0.00081973823033333	155
bin	0.000902258229	106
bin	0.00098477822766666	61
bin	0.0010672982263333	29
bin	0.001149818225	10
bin	0.0012323382236667	5
bin	0.0013148582223333	1
bin	0.001397378221	1
bin	0.0014798982196667	1
bin	0.0015624182183333	0
bin	0.001644938217	0
bin	0.0017274582156667	0
bin	0.0018099782143333	0
bin	0.001892498213	0
bin	0.0019750182116667	0
bin	0.0020575382103333	0
bin	0.002140058209	0
statistic Dumbell.host[2] 	cRate:stats
field count 9632
field mean 24317793.908701
field stddev 7698402.7544761
field sum 234228990928.61
field sqrsum 6.2667174441124e+018
field min 10000000
field max 77536262.1504
attr interpolationmode  sample-hold
attr source  dataRate
attr title  "dataRate, stats"
statistic Dumbell.host[2] 	Rtt:stats
field count 3031
field mean 0.00066203660544935
field stddev 0.00014963186627234
field sum 2.006632951117
field sqrsum 0.0013963052444149
field min 0.00027698598699999
field max 0.001439065929
attr interpolationmode  linear
attr source  RTT
attr title  "RTT measurment, stats"
statistic Dumbell.host[2] 	Rtt:histogram
field count 3031
field mean 0.00066203660544935
field stddev 0.00014963186627234
field sum 2.006632951117
field sqrsum 0.0013963052444149
field min 0.00027698598699999
field max 0.001439065929
attr interpolationmode  linear
attr source  RTT
attr title  "RTT measurment, histogram"
bin	-INF	0
bin	-0.0002116535605	0
bin	-0.00013918503083333	0
bin	-6.6716501166666e-005	0
bin	5.7520285000001e-006	0
bin	7.8220558166667e-005	0
bin	0.00015068908783333	0
bin	0.0002231576175	2
bin	0.00029562614716667	22
bin	0.00036809467683333	99
bin	0.0004405632065	272
bin	0.00051303173616667	536
bin	0.00058550026583333	727
bin	0.0006579687955	598
bin	0.00073043732516667	358
bin	0.00080290585483333	174
bin	0.0008753743845	82
bin	0.00094784291416667	70
bin	0.0010203114438333	48
bin	0.0010927799735	21
bin	0.0011652485031667	14
bin	0.0012377170328333	4
bin	0.0013101855625	0
bin	0.0013826540921667	4
bin	0.0014551226218333	0
bin	0.0015275911515	0
bin	0.0016000596811667	0
bin	0.0016725282108333	0
bin	0.0017449967405	0
bin	0.0018174652701667	0
bin	0.0018899337998333	0
bin	0.0019624023295	0
statistic Dumbell.host[3] 	cRate:stats
field count 11155
field mean 27860714.830482
field stddev 6720344.374073
field sum 310786273934.03
field sqrsum 9.1624761712614e+018
field min 10000000
field max 77991979.133763
attr interpolationmode  sample-hold
attr source  dataRate
attr title  "dataRate, stats"
statistic Dumbell.host[3] 	Rtt:stats
field count 3824
field mean 0.00064333947304315
field stddev 0.00014054021803735
field sum 2.460130144917
field sqrsum 0.0016582090177316
field min 0.000261118527
field max 0.001529712585
attr interpolationmode  linear
attr source  RTT
attr title  "RTT measurment, stats"
statistic Dumbell.host[3] 	Rtt:histogram
field count 3824
field mean 0.00064333947304315
field stddev 0.00014054021803735
field sum 2.460130144917
field sqrsum 0.0016582090177316
field min 0.000261118527
field max 0.001529712585
attr interpolationmode  linear
attr source  RTT
attr title  "RTT measurment, histogram"
bin	-INF	0
bin	-0.000373178502	0
bin	-0.0002886055648	0
bin	-0.0002040326276	0
bin	-0.0001194596904	0
bin	-3.4886753199999e-005	0
bin	4.9686184000001e-005	0
bin	0.0001342591212	0
bin	0.0002188320584	1
bin	0.0003034049956	36
bin	0.0003879779328	230
bin	0.00047255087	745
bin	0.0005571238072	1149
bin	0.0006416967444	846
bin	0.0007262696816	414
bin	0.0008108426188	189
bin	0.000895415556	91
bin	0.0009799884932	58
bin	0.0010645614304	45
bin	0.0011491343676	12
bin	0.0012337073048	5
bin	0.001318280242	2
bin	0.0014028531792	0
bin	0.0014874261164	1
bin	0.0015719990536	0
bin	0.0016565719908	0
bin	0.001741144928	0
bin	0.0018257178652	0
bin	0.0019102908024	0
bin	0.0019948637396	0
bin	0.0020794366768	0
bin	0.002164009614	0
statistic Dumbell.host[4] 	cRate:stats
field count 10640
field mean 26261718.176874
field stddev 5910943.07544
field sum 279424681401.94
field sqrsum 7.7098908945496e+018
field min 10000000
field max 56665384.054672
attr interpolationmode  sample-hold
attr source  dataRate
attr title  "dataRate, stats"
statistic Dumbell.host[4] 	Rtt:stats
field count 3591
field mean 0.00065266958378335
field stddev 0.00013923077269837
field sum 2.343736475366
field sqrsum 0.0015992784068326
field min 0.000230397107
field max 0.001482110983
attr interpolationmode  linear
attr source  RTT
attr title  "RTT measurment, stats"
statistic Dumbell.host[4] 	Rtt:histogram
field count 3591
field mean 0.00065266958378335
field stddev 0.00013923077269837
field sum 2.343736475366
field sqrsum 0.0015992784068326
field min 0.000230397107
field max 0.001482110983
attr interpolationmode  linear
attr source  RTT
attr title  "RTT measurment, histogram"
bin	-INF	0
bin	-0.000215181152	0
bin	-0.000139745946	0
bin	-6.4310739999998e-005	0
bin	1.1124466000002e-005	0
bin	8.6559672000002e-005	0
bin	0.000161994878	1
bin	0.000237430084	0
bin	0.00031286529	13
bin	0.000388300496	143
bin	0.000463735702	468
bin	0.000539170908	954
bin	0.000614606114	890
bin	0.00069004132	557
bin	0.000765476526	309
bin	0.000840911732	102
bin	0.000916346938	46
bin	0.000991782144	35
bin	0.00106721735	25
bin	0.001142652556	24
bin	0.001218087762	16
bin	0.001293522968	5
bin	0.001368958174	1
bin	0.00144439338	2
bin	0.001519828586	0
bin	0.001595263792	0
bin	0.001670698998	0
bin	0.001746134204	0
bin	0.00182156941	0
bin	0.001897004616	0
bin	0.001972439822	0
bin	0.002047875028	0
statistic Dumbell.host[5] 	cRate:stats
field count 12069
field mean 29944637.724488
field stddev 6378743.0776765
field sum 361401832696.85
field sqrsum 1.1313074120786e+019
field min 10000000
field max 77882505.090127
attr interpolationmode  sample-hold
attr source  dataRate
attr title  "dataRate, stats"
statistic Dumbell.host[5] 	Rtt:stats
field count 4311
field mean 0.00064269209027256
field stddev 0.00014055873722698
field sum 2.770645601165
field sqrsum 0.0018658236424299
field min 0.000252069561
field max 0.001421303407
attr interpolationmode  linear
attr source  RTT
attr title  "RTT measurment, stats"
statistic Dumbell.host[5] 	Rtt:histogram
field count 4311
field mean 0.00064269209027256
field stddev 0.00014055873722698
field sum 2.770645601165
field sqrsum 0.0018658236424299
field min 0.000252069561
field max 0.001421303407
attr interpolationmode  linear
attr source  RTT
attr title  "RTT measurment, histogram"
bin	-INF	0
bin	-0.00029442382400001	0
bin	-0.00021816928040001	0
bin	-0.0001419147368	0
bin	-6.5660193200005e-005	0
bin	1.0594350399996e-005	0
bin	8.6848893999996e-005	0
bin	0.0001631034376	0
bin	0.0002393579812	5
bin	0.0003156125248	29
bin	0.0003918670684	221
bin	0.000468121612	676
bin	0.0005443761556	1218
bin	0.0006206306992	984
bin	0.0006968852428	634
bin	0.0007731397864	266
bin	0.00084939433	107
bin	0.0009256488736	56
bin	0.0010019034172	41
bin	0.0010781579608	20
bin	0.0011544125044	21
bin	0.001230667048	20
bin	0.0013069215916	5
bin	0.0013831761352	8
bin	0.0014594306788	0
bin	0.0015356852224	0
bin	0.001611939766	0
bin	0.0016881943096	0
bin	0.0017644488532	0
bin	0.0018407033968	0
bin	0.0019169579404	0
bin	0.001993212484	0
statistic Dumbell.host[6] 	cRate:stats
field count 9682
field mean 24206678.015505
field stddev 6730877.6034152
field sum 234369056546.12
field sqrsum 6.1118912181845e+018
field min 10000000
field max 72328798.995276
attr interpolationmode  sample-hold
attr source  dataRate
attr title  "dataRate, stats"
statistic Dumbell.host[6] 	Rtt:stats
field count 3109
field mean 0.00066807754699871
field stddev 0.00014832895558603
field sum 2.077053093619
field sqrsum 0.0014560131327058
field min 0.000268085037
field max 0.00160632318
attr interpolationmode  linear
attr source  RTT
attr title  "RTT measurment, stats"
statistic Dumbell.host[6] 	Rtt:histogram
field count 3109
field mean 0.00066807754699871
field stddev 0.00014832895558603
field sum 2.077053093619
field sqrsum 0.0014560131327058
field min 0.000268085037
field max 0.00160632318
attr interpolationmode  linear
attr source  RTT
attr title  "RTT measurment, histogram"
bin	-INF	0
bin	-0.000382808199	0
bin	-0.00029440235993333	0
bin	-0.00020599652086667	0
bin	-0.0001175906818	0
bin	-2.9184842733333e-005	0
bin	5.9220996333333e-005	0
bin	0.0001476268354	0
bin	0.00023603267446667	6
bin	0.00032443851353333	39
bin	0.0004128443526	225
bin	0.00050125019166666	653
bin	0.00058965603073333	929
bin	0.0006780618698	674
bin	0.00076646770886666	313
bin	0.00085487354793333	132
bin	0.000943279387	46
bin	0.0010316852260667	32
bin	0.0011200910651333	29
bin	0.0012084969042	24
bin	0.0012969027432667	5
bin	0.0013853085823333	0
bin	0.0014737144214	1
bin	0.0015621202604667	1
bin	0.0016505260995333	0
bin	0.0017389319386	0
bin	0.0018273377776667	0
bin	0.0019157436167333	0
bin	0.0020041494558	0
bin	0.0020925552948667	0
bin	0.0021809611339333	0
bin	0.002269366973	0
statistic Dumbell.host[7] 	cRate:stats
field count 9689
field mean 23934727.425734
field stddev 6601515.7251702
field sum 231903574027.93
field sqrsum 5.9727519690294e+018
field min 10000000
field max 72293650.448587
attr interpolationmode  sample-hold
attr source  dataRate
attr title  "dataRate, stats"
statistic Dumbell.host[7] 	Rtt:stats
field count 3068
field mean 0.00067201616899055
field stddev 0.00014601074296205
field sum 2.061745606463
field sqrsum 0.0014509121772524
field min 0.00029654769300001
field max 0.001624125299
attr interpolationmode  linear
attr source  RTT
attr title  "RTT measurment, stats"
statistic Dumbell.host[7] 	Rtt:histogram
field count 3068
field mean 0.00067201616899055
field stddev 0.00014601074296205
field sum 2.061745606463
field sqrsum 0.0014509121772524
field min 0.00029654769300001
field max 0.001624125299
attr interpolationmode  linear
attr source  RTT
attr title  "RTT measurment, histogram"
bin	-INF	0
bin	-0.00034661479999999	0
bin	-0.00026085980093333	0
bin	-0.00017510480186666	0
bin	-8.9349802799993e-005	0
bin	-3.5948037333265e-006	0
bin	8.216019533334e-005	0
bin	0.00016791519440001	0
bin	0.00025367019346667	7
bin	0.00033942519253334	39
bin	0.00042518019160001	236
bin	0.00051093519066667	637
bin	0.00059669018973334	892
bin	0.0006824451888	703
bin	0.00076820018786667	302
bin	0.00085395518693334	111
bin	0.000939710186	50
bin	0.0010254651850667	30
bin	0.0011112201841333	23
bin	0.0011969751832	22
bin	0.0012827301822667	9
bin	0.0013684851813333	5
bin	0.0014542401804	0
bin	0.0015399951794667	2
bin	0.0016257501785333	0
bin	0.0017115051776	0
bin	0.0017972601766667	0
bin	0.0018830151757333	0
bin	0.0019687701748	0
bin	0.0020545251738667	0
bin	0.0021402801729333	0
bin	0.002226035172	0
statistic Dumbell.switch[0].conP[0] 	fbCnt:stats
field count 0
field mean 0
field stddev -1.#IND
field sum 0
field sqrsum 0
field min 0
field max 0
attr interpolationmode  none
attr source  fbCnt
attr title  "fb counter, stats"
statistic Dumbell.switch[0].conP[0] 	fbCnt:histogram
field count 0
field mean 0
field stddev -1.#IND
field sum 0
field sqrsum 0
field min 0
field max 0
attr interpolationmode  none
attr source  fbCnt
attr title  "fb counter, histogram"
bin	-INF	0
bin	-0.5	0
bin	-0.46666666666667	0
bin	-0.43333333333333	0
bin	-0.4	0
bin	-0.36666666666667	0
bin	-0.33333333333333	0
bin	-0.3	0
bin	-0.26666666666667	0
bin	-0.23333333333333	0
bin	-0.2	0
bin	-0.16666666666667	0
bin	-0.13333333333333	0
bin	-0.1	0
bin	-0.066666666666667	0
bin	-0.033333333333333	0
bin	-6.9388939039072e-018	0
bin	0.033333333333333	0
bin	0.066666666666667	0
bin	0.1	0
bin	0.13333333333333	0
bin	0.16666666666667	0
bin	0.2	0
bin	0.23333333333333	0
bin	0.26666666666667	0
bin	0.3	0
bin	0.33333333333333	0
bin	0.36666666666667	0
bin	0.4	0
bin	0.43333333333333	0
bin	0.46666666666667	0
bin	0.5	0
statistic Dumbell.switch[0].conP[0] 	tLoss:stats
field count 0
field mean 0
field stddev -1.#IND
field sum 0
field sqrsum 0
field min 0
field max 0
attr interpolationmode  none
attr source  LossSg
attr title  "Time Loss, stats"
statistic Dumbell.switch[0].conP[0] 	tLoss:histogram
field count 0
field mean 0
field stddev -1.#IND
field sum 0
field sqrsum 0
field min 0
field max 0
attr interpolationmode  none
attr source  LossSg
attr title  "Time Loss, histogram"
bin	-INF	0
bin	-0.5	0
bin	-0.46666666666667	0
bin	-0.43333333333333	0
bin	-0.4	0
bin	-0.36666666666667	0
bin	-0.33333333333333	0
bin	-0.3	0
bin	-0.26666666666667	0
bin	-0.23333333333333	0
bin	-0.2	0
bin	-0.16666666666667	0
bin	-0.13333333333333	0
bin	-0.1	0
bin	-0.066666666666667	0
bin	-0.033333333333333	0
bin	-6.9388939039072e-018	0
bin	0.033333333333333	0
bin	0.066666666666667	0
bin	0.1	0
bin	0.13333333333333	0
bin	0.16666666666667	0
bin	0.2	0
bin	0.23333333333333	0
bin	0.26666666666667	0
bin	0.3	0
bin	0.33333333333333	0
bin	0.36666666666667	0
bin	0.4	0
bin	0.43333333333333	0
bin	0.46666666666667	0
bin	0.5	0
statistic Dumbell.switch[0].conP[0] 	qlen:stats
field count 10826
field mean 0.28926713467578
field stddev 0.074209079483152
field sum 3131.606
field sqrsum 965.48383399999
field min 0.2
field max 0.698
attr interpolationmode  linear
attr source  QLen
attr title  "queue size, stats"
statistic Dumbell.switch[0].conP[0] 	qlen:histogram
field count 10826
field mean 0.28926713467578
field stddev 0.074209079483152
field sum 3131.606
field sqrsum 965.48383399999
field min 0.2
field max 0.698
attr interpolationmode  linear
attr source  QLen
attr title  "queue size, histogram"
bin	-INF	0
bin	0.0695	0
bin	0.087166666666667	0
bin	0.10483333333333	0
bin	0.1225	0
bin	0.14016666666667	0
bin	0.15783333333333	0
bin	0.1755	0
bin	0.19316666666667	962
bin	0.21083333333333	1497
bin	0.2285	1354
bin	0.24616666666667	1131
bin	0.26383333333333	1078
bin	0.2815	909
bin	0.29916666666667	774
bin	0.31683333333333	602
bin	0.3345	595
bin	0.35216666666667	392
bin	0.36983333333333	353
bin	0.3875	266
bin	0.40516666666667	225
bin	0.42283333333333	173
bin	0.4405	144
bin	0.45816666666667	102
bin	0.47583333333333	82
bin	0.4935	59
bin	0.51116666666667	34
bin	0.52883333333333	23
bin	0.5465	29
bin	0.56416666666667	7
bin	0.58183333333333	12
bin	0.5995	23
statistic Dumbell.switch[0].conP[1] 	fbCnt:stats
field count 0
field mean 0
field stddev -1.#IND
field sum 0
field sqrsum 0
field min 0
field max 0
attr interpolationmode  none
attr source  fbCnt
attr title  "fb counter, stats"
statistic Dumbell.switch[0].conP[1] 	fbCnt:histogram
field count 0
field mean 0
field stddev -1.#IND
field sum 0
field sqrsum 0
field min 0
field max 0
attr interpolationmode  none
attr source  fbCnt
attr title  "fb counter, histogram"
bin	-INF	0
bin	-0.5	0
bin	-0.46666666666667	0
bin	-0.43333333333333	0
bin	-0.4	0
bin	-0.36666666666667	0
bin	-0.33333333333333	0
bin	-0.3	0
bin	-0.26666666666667	0
bin	-0.23333333333333	0
bin	-0.2	0
bin	-0.16666666666667	0
bin	-0.13333333333333	0
bin	-0.1	0
bin	-0.066666666666667	0
bin	-0.033333333333333	0
bin	-6.9388939039072e-018	0
bin	0.033333333333333	0
bin	0.066666666666667	0
bin	0.1	0
bin	0.13333333333333	0
bin	0.16666666666667	0
bin	0.2	0
bin	0.23333333333333	0
bin	0.26666666666667	0
bin	0.3	0
bin	0.33333333333333	0
bin	0.36666666666667	0
bin	0.4	0
bin	0.43333333333333	0
bin	0.46666666666667	0
bin	0.5	0
statistic Dumbell.switch[0].conP[1] 	tLoss:stats
field count 0
field mean 0
field stddev -1.#IND
field sum 0
field sqrsum 0
field min 0
field max 0
attr interpolationmode  none
attr source  LossSg
attr title  "Time Loss, stats"
statistic Dumbell.switch[0].conP[1] 	tLoss:histogram
field count 0
field mean 0
field stddev -1.#IND
field sum 0
field sqrsum 0
field min 0
field max 0
attr interpolationmode  none
attr source  LossSg
attr title  "Time Loss, histogram"
bin	-INF	0
bin	-0.5	0
bin	-0.46666666666667	0
bin	-0.43333333333333	0
bin	-0.4	0
bin	-0.36666666666667	0
bin	-0.33333333333333	0
bin	-0.3	0
bin	-0.26666666666667	0
bin	-0.23333333333333	0
bin	-0.2	0
bin	-0.16666666666667	0
bin	-0.13333333333333	0
bin	-0.1	0
bin	-0.066666666666667	0
bin	-0.033333333333333	0
bin	-6.9388939039072e-018	0
bin	0.033333333333333	0
bin	0.066666666666667	0
bin	0.1	0
bin	0.13333333333333	0
bin	0.16666666666667	0
bin	0.2	0
bin	0.23333333333333	0
bin	0.26666666666667	0
bin	0.3	0
bin	0.33333333333333	0
bin	0.36666666666667	0
bin	0.4	0
bin	0.43333333333333	0
bin	0.46666666666667	0
bin	0.5	0
statistic Dumbell.switch[0].conP[1] 	qlen:stats
field count 10339
field mean 0.2893350420737
field stddev 0.074380119311517
field sum 2991.435
field sqrsum 922.72094499999
field min 0.2
field max 0.68
attr interpolationmode  linear
attr source  QLen
attr title  "queue size, stats"
statistic Dumbell.switch[0].conP[1] 	qlen:histogram
field count 10339
field mean 0.2893350420737
field stddev 0.074380119311517
field sum 2991.435
field sqrsum 922.72094499999
field min 0.2
field max 0.68
attr interpolationmode  linear
attr source  QLen
attr title  "queue size, histogram"
bin	-INF	0
bin	0.0465	0
bin	0.066966666666667	0
bin	0.087433333333333	0
bin	0.1079	0
bin	0.12836666666667	0
bin	0.14883333333333	0
bin	0.1693	0
bin	0.18976666666667	942
bin	0.21023333333333	1603
bin	0.2307	1458
bin	0.25116666666667	1168
bin	0.27163333333333	1052
bin	0.2921	923
bin	0.31256666666667	749
bin	0.33303333333333	587
bin	0.3535	483
bin	0.37396666666667	385
bin	0.39443333333333	251
bin	0.4149	224
bin	0.43536666666667	148
bin	0.45583333333333	122
bin	0.4763	73
bin	0.49676666666667	55
bin	0.51723333333333	40
bin	0.5377	29
bin	0.55816666666667	12
bin	0.57863333333333	8
bin	0.5991	8
bin	0.61956666666667	9
bin	0.64003333333333	7
bin	0.6605	3
statistic Dumbell.switch[0].conP[2] 	fbCnt:stats
field count 0
field mean 0
field stddev -1.#IND
field sum 0
field sqrsum 0
field min 0
field max 0
attr interpolationmode  none
attr source  fbCnt
attr title  "fb counter, stats"
statistic Dumbell.switch[0].conP[2] 	fbCnt:histogram
field count 0
field mean 0
field stddev -1.#IND
field sum 0
field sqrsum 0
field min 0
field max 0
attr interpolationmode  none
attr source  fbCnt
attr title  "fb counter, histogram"
bin	-INF	0
bin	-0.5	0
bin	-0.46666666666667	0
bin	-0.43333333333333	0
bin	-0.4	0
bin	-0.36666666666667	0
bin	-0.33333333333333	0
bin	-0.3	0
bin	-0.26666666666667	0
bin	-0.23333333333333	0
bin	-0.2	0
bin	-0.16666666666667	0
bin	-0.13333333333333	0
bin	-0.1	0
bin	-0.066666666666667	0
bin	-0.033333333333333	0
bin	-6.9388939039072e-018	0
bin	0.033333333333333	0
bin	0.066666666666667	0
bin	0.1	0
bin	0.13333333333333	0
bin	0.16666666666667	0
bin	0.2	0
bin	0.23333333333333	0
bin	0.26666666666667	0
bin	0.3	0
bin	0.33333333333333	0
bin	0.36666666666667	0
bin	0.4	0
bin	0.43333333333333	0
bin	0.46666666666667	0
bin	0.5	0
statistic Dumbell.switch[0].conP[2] 	tLoss:stats
field count 0
field mean 0
field stddev -1.#IND
field sum 0
field sqrsum 0
field min 0
field max 0
attr interpolationmode  none
attr source  LossSg
attr title  "Time Loss, stats"
statistic Dumbell.switch[0].conP[2] 	tLoss:histogram
field count 0
field mean 0
field stddev -1.#IND
field sum 0
field sqrsum 0
field min 0
field max 0
attr interpolationmode  none
attr source  LossSg
attr title  "Time Loss, histogram"
bin	-INF	0
bin	-0.5	0
bin	-0.46666666666667	0
bin	-0.43333333333333	0
bin	-0.4	0
bin	-0.36666666666667	0
bin	-0.33333333333333	0
bin	-0.3	0
bin	-0.26666666666667	0
bin	-0.23333333333333	0
bin	-0.2	0
bin	-0.16666666666667	0
bin	-0.13333333333333	0
bin	-0.1	0
bin	-0.066666666666667	0
bin	-0.033333333333333	0
bin	-6.9388939039072e-018	0
bin	0.033333333333333	0
bin	0.066666666666667	0
bin	0.1	0
bin	0.13333333333333	0
bin	0.16666666666667	0
bin	0.2	0
bin	0.23333333333333	0
bin	0.26666666666667	0
bin	0.3	0
bin	0.33333333333333	0
bin	0.36666666666667	0
bin	0.4	0
bin	0.43333333333333	0
bin	0.46666666666667	0
bin	0.5	0
statistic Dumbell.switch[0].conP[2] 	qlen:stats
field count 10153
field mean 0.28932483009948
field stddev 0.074665647360853
field sum 2937.515
field sqrsum 906.49301099999
field min 0.2
field max 0.864
attr interpolationmode  linear
attr source  QLen
attr title  "queue size, stats"
statistic Dumbell.switch[0].conP[2] 	qlen:histogram
field count 10153
field mean 0.28932483009948
field stddev 0.074665647360853
field sum 2937.515
field sqrsum 906.49301099999
field min 0.2
field max 0.864
attr interpolationmode  linear
attr source  QLen
attr title  "queue size, histogram"
bin	-INF	0
bin	0.0185	0
bin	0.0427	0
bin	0.0669	0
bin	0.0911	0
bin	0.1153	0
bin	0.1395	0
bin	0.1637	0
bin	0.1879	1118
bin	0.2121	1779
bin	0.2363	1574
bin	0.2605	1363
bin	0.2847	1029
bin	0.3089	905
bin	0.3331	666
bin	0.3573	502
bin	0.3815	375
bin	0.4057	261
bin	0.4299	195
bin	0.4541	135
bin	0.4783	94
bin	0.5025	63
bin	0.5267	44
bin	0.5509	19
bin	0.5751	7
bin	0.5993	10
bin	0.6235	7
bin	0.6477	4
bin	0.6719	1
bin	0.6961	0
bin	0.7203	1
bin	0.7445	1
statistic Dumbell.switch[0].conP[3] 	fbCnt:stats
field count 0
field mean 0
field stddev -1.#IND
field sum 0
field sqrsum 0
field min 0
field max 0
attr interpolationmode  none
attr source  fbCnt
attr title  "fb counter, stats"
statistic Dumbell.switch[0].conP[3] 	fbCnt:histogram
field count 0
field mean 0
field stddev -1.#IND
field sum 0
field sqrsum 0
field min 0
field max 0
attr interpolationmode  none
attr source  fbCnt
attr title  "fb counter, histogram"
bin	-INF	0
bin	-0.5	0
bin	-0.46666666666667	0
bin	-0.43333333333333	0
bin	-0.4	0
bin	-0.36666666666667	0
bin	-0.33333333333333	0
bin	-0.3	0
bin	-0.26666666666667	0
bin	-0.23333333333333	0
bin	-0.2	0
bin	-0.16666666666667	0
bin	-0.13333333333333	0
bin	-0.1	0
bin	-0.066666666666667	0
bin	-0.033333333333333	0
bin	-6.9388939039072e-018	0
bin	0.033333333333333	0
bin	0.066666666666667	0
bin	0.1	0
bin	0.13333333333333	0
bin	0.16666666666667	0
bin	0.2	0
bin	0.23333333333333	0
bin	0.26666666666667	0
bin	0.3	0
bin	0.33333333333333	0
bin	0.36666666666667	0
bin	0.4	0
bin	0.43333333333333	0
bin	0.46666666666667	0
bin	0.5	0
statistic Dumbell.switch[0].conP[3] 	tLoss:stats
field count 0
field mean 0
field stddev -1.#IND
field sum 0
field sqrsum 0
field min 0
field max 0
attr interpolationmode  none
attr source  LossSg
attr title  "Time Loss, stats"
statistic Dumbell.switch[0].conP[3] 	tLoss:histogram
field count 0
field mean 0
field stddev -1.#IND
field sum 0
field sqrsum 0
field min 0
field max 0
attr interpolationmode  none
attr source  LossSg
attr title  "Time Loss, histogram"
bin	-INF	0
bin	-0.5	0
bin	-0.46666666666667	0
bin	-0.43333333333333	0
bin	-0.4	0
bin	-0.36666666666667	0
bin	-0.33333333333333	0
bin	-0.3	0
bin	-0.26666666666667	0
bin	-0.23333333333333	0
bin	-0.2	0
bin	-0.16666666666667	0
bin	-0.13333333333333	0
bin	-0.1	0
bin	-0.066666666666667	0
bin	-0.033333333333333	0
bin	-6.9388939039072e-018	0
bin	0.033333333333333	0
bin	0.066666666666667	0
bin	0.1	0
bin	0.13333333333333	0
bin	0.16666666666667	0
bin	0.2	0
bin	0.23333333333333	0
bin	0.26666666666667	0
bin	0.3	0
bin	0.33333333333333	0
bin	0.36666666666667	0
bin	0.4	0
bin	0.43333333333333	0
bin	0.46666666666667	0
bin	0.5	0
statistic Dumbell.switch[0].conP[3] 	qlen:stats
field count 10762
field mean 0.28891209812302
field stddev 0.073272897208774
field sum 3109.272
field sqrsum 956.08121799999
field min 0.2
field max 0.815
attr interpolationmode  linear
attr source  QLen
attr title  "queue size, stats"
statistic Dumbell.switch[0].conP[3] 	qlen:histogram
field count 10762
field mean 0.28891209812302
field stddev 0.073272897208774
field sum 3109.272
field sqrsum 956.08121799999
field min 0.2
field max 0.815
attr interpolationmode  linear
attr source  QLen
attr title  "queue size, histogram"
bin	-INF	0
bin	0.0355	0
bin	0.057433333333333	0
bin	0.079366666666667	0
bin	0.1013	0
bin	0.12323333333333	0
bin	0.14516666666667	0
bin	0.1671	0
bin	0.18903333333333	1033
bin	0.21096666666667	1711
bin	0.2329	1551
bin	0.25483333333333	1386
bin	0.27676666666667	1105
bin	0.2987	975
bin	0.32063333333333	812
bin	0.34256666666667	584
bin	0.3645	476
bin	0.38643333333333	334
bin	0.40836666666667	234
bin	0.4303	181
bin	0.45223333333333	131
bin	0.47416666666667	84
bin	0.4961	51
bin	0.51803333333333	40
bin	0.53996666666667	28
bin	0.5619	20
bin	0.58383333333333	12
bin	0.60576666666667	6
bin	0.6277	5
bin	0.64963333333333	0
bin	0.67156666666667	0
bin	0.6935	3
statistic Dumbell.switch[0].conP[4] 	fbCnt:stats
field count 90
field mean 78.477777777778
field stddev 56.039558214657
field sum 7063
field sqrsum 833787
field min 21
field max 233
attr interpolationmode  none
attr source  fbCnt
attr title  "fb counter, stats"
statistic Dumbell.switch[0].conP[4] 	fbCnt:histogram
field count 90
field mean 78.477777777778
field stddev 56.039558214657
field sum 7063
field sqrsum 833787
field min 21
field max 233
attr interpolationmode  none
attr source  fbCnt
attr title  "fb counter, histogram"
bin	-INF	0
bin	-86	0
bin	-83	0
bin	-80	0
bin	-77	0
bin	-74	0
bin	-71	0
bin	-68	0
bin	-65	0
bin	-62	0
bin	-59	0
bin	-56	0
bin	-53	0
bin	-50	0
bin	-47	0
bin	-44	0
bin	-41	0
bin	-38	0
bin	-35	0
bin	-32	0
bin	-29	0
bin	-26	0
bin	-23	0
bin	-20	0
bin	-17	0
bin	-14	0
bin	-11	0
bin	-8	0
bin	-5	0
bin	-2	0
bin	1	0
bin	4	0
bin	7	0
bin	10	0
bin	13	0
bin	16	0
bin	19	1
bin	22	2
bin	25	2
bin	28	3
bin	31	5
bin	34	6
bin	37	7
bin	40	4
bin	43	4
bin	46	5
bin	49	4
bin	52	2
bin	55	2
bin	58	2
bin	61	2
bin	64	2
bin	67	4
bin	70	2
bin	73	2
bin	76	1
bin	79	1
bin	82	0
bin	85	1
bin	88	0
bin	91	2
bin	94	0
bin	97	0
bin	100	1
bin	103	4
bin	106	0
bin	109	0
bin	112	0
bin	115	0
bin	118	0
bin	121	0
bin	124	0
bin	127	0
bin	130	0
bin	133	0
bin	136	0
bin	139	1
bin	142	1
bin	145	3
bin	148	1
bin	151	0
bin	154	1
bin	157	1
bin	160	0
bin	163	1
bin	166	0
bin	169	0
bin	172	0
bin	175	0
bin	178	1
bin	181	1
bin	184	0
bin	187	0
bin	190	4
bin	193	0
bin	196	0
bin	199	0
bin	202	0
bin	205	1
bin	208	1
bin	211	0
bin	214	0
bin	217	0
bin	220	0
bin	223	1
bin	226	0
bin	229	0
bin	232	1
bin	235	0
bin	238	0
bin	241	0
bin	244	0
bin	247	0
bin	250	0
bin	253	0
bin	256	0
bin	259	0
bin	262	0
bin	265	0
bin	268	0
bin	271	0
bin	274	0
bin	277	0
bin	280	0
bin	283	0
bin	286	0
bin	289	0
bin	292	0
bin	295	0
bin	298	0
bin	301	0
bin	304	0
bin	307	0
bin	310	0
bin	313	0
bin	316	0
bin	319	0
bin	322	0
bin	325	0
bin	328	0
bin	331	0
bin	334	0
bin	337	0
bin	340	0
statistic Dumbell.switch[0].conP[4] 	tLoss:stats
field count 0
field mean 0
field stddev -1.#IND
field sum 0
field sqrsum 0
field min 0
field max 0
attr interpolationmode  none
attr source  LossSg
attr title  "Time Loss, stats"
statistic Dumbell.switch[0].conP[4] 	tLoss:histogram
field count 0
field mean 0
field stddev -1.#IND
field sum 0
field sqrsum 0
field min 0
field max 0
attr interpolationmode  none
attr source  LossSg
attr title  "Time Loss, histogram"
bin	-INF	0
bin	-0.5	0
bin	-0.46666666666667	0
bin	-0.43333333333333	0
bin	-0.4	0
bin	-0.36666666666667	0
bin	-0.33333333333333	0
bin	-0.3	0
bin	-0.26666666666667	0
bin	-0.23333333333333	0
bin	-0.2	0
bin	-0.16666666666667	0
bin	-0.13333333333333	0
bin	-0.1	0
bin	-0.066666666666667	0
bin	-0.033333333333333	0
bin	-6.9388939039072e-018	0
bin	0.033333333333333	0
bin	0.066666666666667	0
bin	0.1	0
bin	0.13333333333333	0
bin	0.16666666666667	0
bin	0.2	0
bin	0.23333333333333	0
bin	0.26666666666667	0
bin	0.3	0
bin	0.33333333333333	0
bin	0.36666666666667	0
bin	0.4	0
bin	0.43333333333333	0
bin	0.46666666666667	0
bin	0.5	0
statistic Dumbell.switch[0].conP[4] 	qlen:stats
field count 42044
field mean 1.9709557844164
field stddev 0.98487906146457
field sum 82866.865000004
field sqrsum 204108.08049901
field min 0.20000000000001
field max 6.947
attr interpolationmode  linear
attr source  QLen
attr title  "queue size, stats"
statistic Dumbell.switch[0].conP[4] 	qlen:histogram
field count 42044
field mean 1.9709557844164
field stddev 0.98487906146457
field sum 82866.865000004
field sqrsum 204108.08049901
field min 0.20000000000001
field max 6.947
attr interpolationmode  linear
attr source  QLen
attr title  "queue size, histogram"
bin	-INF	0
bin	-2.892	0
bin	-2.4796	0
bin	-2.0672	0
bin	-1.6548	0
bin	-1.2424	0
bin	-0.82999999999999	0
bin	-0.41759999999999	0
bin	-0.0051999999999942	1507
bin	0.40720000000001	2837
bin	0.81960000000001	4666
bin	1.232	6852
bin	1.6444	8215
bin	2.0568	7991
bin	2.4692	4668
bin	2.8816	1981
bin	3.294	1110
bin	3.7064	701
bin	4.1188	447
bin	4.5312	342
bin	4.9436	303
bin	5.356	189
bin	5.7684	161
bin	6.1808	69
bin	6.5932	5
bin	7.0056	0
bin	7.418	0
bin	7.8304	0
bin	8.2428	0
bin	8.6552	0
bin	9.0676	0
bin	9.48	0
statistic Dumbell.switch[1].conP[0] 	fbCnt:stats
field count 0
field mean 0
field stddev -1.#IND
field sum 0
field sqrsum 0
field min 0
field max 0
attr interpolationmode  none
attr source  fbCnt
attr title  "fb counter, stats"
statistic Dumbell.switch[1].conP[0] 	fbCnt:histogram
field count 0
field mean 0
field stddev -1.#IND
field sum 0
field sqrsum 0
field min 0
field max 0
attr interpolationmode  none
attr source  fbCnt
attr title  "fb counter, histogram"
bin	-INF	0
bin	-0.5	0
bin	-0.46666666666667	0
bin	-0.43333333333333	0
bin	-0.4	0
bin	-0.36666666666667	0
bin	-0.33333333333333	0
bin	-0.3	0
bin	-0.26666666666667	0
bin	-0.23333333333333	0
bin	-0.2	0
bin	-0.16666666666667	0
bin	-0.13333333333333	0
bin	-0.1	0
bin	-0.066666666666667	0
bin	-0.033333333333333	0
bin	-6.9388939039072e-018	0
bin	0.033333333333333	0
bin	0.066666666666667	0
bin	0.1	0
bin	0.13333333333333	0
bin	0.16666666666667	0
bin	0.2	0
bin	0.23333333333333	0
bin	0.26666666666667	0
bin	0.3	0
bin	0.33333333333333	0
bin	0.36666666666667	0
bin	0.4	0
bin	0.43333333333333	0
bin	0.46666666666667	0
bin	0.5	0
statistic Dumbell.switch[1].conP[0] 	tLoss:stats
field count 0
field mean 0
field stddev -1.#IND
field sum 0
field sqrsum 0
field min 0
field max 0
attr interpolationmode  none
attr source  LossSg
attr title  "Time Loss, stats"
statistic Dumbell.switch[1].conP[0] 	tLoss:histogram
field count 0
field mean 0
field stddev -1.#IND
field sum 0
field sqrsum 0
field min 0
field max 0
attr interpolationmode  none
attr source  LossSg
attr title  "Time Loss, histogram"
bin	-INF	0
bin	-0.5	0
bin	-0.46666666666667	0
bin	-0.43333333333333	0
bin	-0.4	0
bin	-0.36666666666667	0
bin	-0.33333333333333	0
bin	-0.3	0
bin	-0.26666666666667	0
bin	-0.23333333333333	0
bin	-0.2	0
bin	-0.16666666666667	0
bin	-0.13333333333333	0
bin	-0.1	0
bin	-0.066666666666667	0
bin	-0.033333333333333	0
bin	-6.9388939039072e-018	0
bin	0.033333333333333	0
bin	0.066666666666667	0
bin	0.1	0
bin	0.13333333333333	0
bin	0.16666666666667	0
bin	0.2	0
bin	0.23333333333333	0
bin	0.26666666666667	0
bin	0.3	0
bin	0.33333333333333	0
bin	0.36666666666667	0
bin	0.4	0
bin	0.43333333333333	0
bin	0.46666666666667	0
bin	0.5	0
statistic Dumbell.switch[1].conP[0] 	qlen:stats
field count 10636
field mean 0.29008997743513
field stddev 0.074243246819589
field sum 3085.397
field sqrsum 953.66350099999
field min 0.2
field max 0.72
attr interpolationmode  linear
attr source  QLen
attr title  "queue size, stats"
statistic Dumbell.switch[1].conP[0] 	qlen:histogram
field count 10636
field mean 0.29008997743513
field stddev 0.074243246819589
field sum 3085.397
field sqrsum 953.66350099999
field min 0.2
field max 0.72
attr interpolationmode  linear
attr source  QLen
attr title  "queue size, histogram"
bin	-INF	0
bin	0.0475	0
bin	0.067833333333333	0
bin	0.088166666666667	0
bin	0.1085	0
bin	0.12883333333333	0
bin	0.14916666666667	0
bin	0.1695	0
bin	0.18983333333333	909
bin	0.21016666666667	1628
bin	0.2305	1459
bin	0.25083333333333	1243
bin	0.27116666666667	1111
bin	0.2915	918
bin	0.31183333333333	811
bin	0.33216666666667	626
bin	0.3525	484
bin	0.37283333333333	392
bin	0.39316666666667	276
bin	0.4135	226
bin	0.43383333333333	155
bin	0.45416666666667	126
bin	0.4745	83
bin	0.49483333333333	71
bin	0.51516666666667	41
bin	0.5355	21
bin	0.55583333333333	17
bin	0.57616666666667	15
bin	0.5965	5
bin	0.61683333333333	9
bin	0.63716666666667	1
bin	0.6575	9
statistic Dumbell.switch[1].conP[1] 	fbCnt:stats
field count 0
field mean 0
field stddev -1.#IND
field sum 0
field sqrsum 0
field min 0
field max 0
attr interpolationmode  none
attr source  fbCnt
attr title  "fb counter, stats"
statistic Dumbell.switch[1].conP[1] 	fbCnt:histogram
field count 0
field mean 0
field stddev -1.#IND
field sum 0
field sqrsum 0
field min 0
field max 0
attr interpolationmode  none
attr source  fbCnt
attr title  "fb counter, histogram"
bin	-INF	0
bin	-0.5	0
bin	-0.46666666666667	0
bin	-0.43333333333333	0
bin	-0.4	0
bin	-0.36666666666667	0
bin	-0.33333333333333	0
bin	-0.3	0
bin	-0.26666666666667	0
bin	-0.23333333333333	0
bin	-0.2	0
bin	-0.16666666666667	0
bin	-0.13333333333333	0
bin	-0.1	0
bin	-0.066666666666667	0
bin	-0.033333333333333	0
bin	-6.9388939039072e-018	0
bin	0.033333333333333	0
bin	0.066666666666667	0
bin	0.1	0
bin	0.13333333333333	0
bin	0.16666666666667	0
bin	0.2	0
bin	0.23333333333333	0
bin	0.26666666666667	0
bin	0.3	0
bin	0.33333333333333	0
bin	0.36666666666667	0
bin	0.4	0
bin	0.43333333333333	0
bin	0.46666666666667	0
bin	0.5	0
statistic Dumbell.switch[1].conP[1] 	tLoss:stats
field count 0
field mean 0
field stddev -1.#IND
field sum 0
field sqrsum 0
field min 0
field max 0
attr interpolationmode  none
attr source  LossSg
attr title  "Time Loss, stats"
statistic Dumbell.switch[1].conP[1] 	tLoss:histogram
field count 0
field mean 0
field stddev -1.#IND
field sum 0
field sqrsum 0
field min 0
field max 0
attr interpolationmode  none
attr source  LossSg
attr title  "Time Loss, histogram"
bin	-INF	0
bin	-0.5	0
bin	-0.46666666666667	0
bin	-0.43333333333333	0
bin	-0.4	0
bin	-0.36666666666667	0
bin	-0.33333333333333	0
bin	-0.3	0
bin	-0.26666666666667	0
bin	-0.23333333333333	0
bin	-0.2	0
bin	-0.16666666666667	0
bin	-0.13333333333333	0
bin	-0.1	0
bin	-0.066666666666667	0
bin	-0.033333333333333	0
bin	-6.9388939039072e-018	0
bin	0.033333333333333	0
bin	0.066666666666667	0
bin	0.1	0
bin	0.13333333333333	0
bin	0.16666666666667	0
bin	0.2	0
bin	0.23333333333333	0
bin	0.26666666666667	0
bin	0.3	0
bin	0.33333333333333	0
bin	0.36666666666667	0
bin	0.4	0
bin	0.43333333333333	0
bin	0.46666666666667	0
bin	0.5	0
statistic Dumbell.switch[1].conP[1] 	qlen:stats
field count 11227
field mean 0.28969466464772
field stddev 0.074414794700153
field sum 3252.402
field sqrsum 1004.368174
field min 0.2
field max 0.731
attr interpolationmode  linear
attr source  QLen
attr title  "queue size, stats"
statistic Dumbell.switch[1].conP[1] 	qlen:histogram
field count 11227
field mean 0.28969466464772
field stddev 0.074414794700153
field sum 3252.402
field sqrsum 1004.368174
field min 0.2
field max 0.731
attr interpolationmode  linear
attr source  QLen
attr title  "queue size, histogram"
bin	-INF	0
bin	0.086	0
bin	0.10133333333333	0
bin	0.11666666666667	0
bin	0.132	0
bin	0.14733333333333	0
bin	0.16266666666667	0
bin	0.178	0
bin	0.19333333333333	843
bin	0.20866666666667	1334
bin	0.224	1245
bin	0.23933333333333	1112
bin	0.25466666666667	1044
bin	0.27	833
bin	0.28533333333333	741
bin	0.30066666666667	731
bin	0.316	615
bin	0.33133333333333	506
bin	0.34666666666667	437
bin	0.362	343
bin	0.37733333333333	275
bin	0.39266666666667	247
bin	0.408	222
bin	0.42333333333333	137
bin	0.43866666666667	135
bin	0.454	96
bin	0.46933333333333	95
bin	0.48466666666667	69
bin	0.5	56
bin	0.51533333333333	29
bin	0.53066666666667	24
bin	0.546	58
statistic Dumbell.switch[1].conP[2] 	fbCnt:stats
field count 0
field mean 0
field stddev -1.#IND
field sum 0
field sqrsum 0
field min 0
field max 0
attr interpolationmode  none
attr source  fbCnt
attr title  "fb counter, stats"
statistic Dumbell.switch[1].conP[2] 	fbCnt:histogram
field count 0
field mean 0
field stddev -1.#IND
field sum 0
field sqrsum 0
field min 0
field max 0
attr interpolationmode  none
attr source  fbCnt
attr title  "fb counter, histogram"
bin	-INF	0
bin	-0.5	0
bin	-0.46666666666667	0
bin	-0.43333333333333	0
bin	-0.4	0
bin	-0.36666666666667	0
bin	-0.33333333333333	0
bin	-0.3	0
bin	-0.26666666666667	0
bin	-0.23333333333333	0
bin	-0.2	0
bin	-0.16666666666667	0
bin	-0.13333333333333	0
bin	-0.1	0
bin	-0.066666666666667	0
bin	-0.033333333333333	0
bin	-6.9388939039072e-018	0
bin	0.033333333333333	0
bin	0.066666666666667	0
bin	0.1	0
bin	0.13333333333333	0
bin	0.16666666666667	0
bin	0.2	0
bin	0.23333333333333	0
bin	0.26666666666667	0
bin	0.3	0
bin	0.33333333333333	0
bin	0.36666666666667	0
bin	0.4	0
bin	0.43333333333333	0
bin	0.46666666666667	0
bin	0.5	0
statistic Dumbell.switch[1].conP[2] 	tLoss:stats
field count 0
field mean 0
field stddev -1.#IND
field sum 0
field sqrsum 0
field min 0
field max 0
attr interpolationmode  none
attr source  LossSg
attr title  "Time Loss, stats"
statistic Dumbell.switch[1].conP[2] 	tLoss:histogram
field count 0
field mean 0
field stddev -1.#IND
field sum 0
field sqrsum 0
field min 0
field max 0
attr interpolationmode  none
attr source  LossSg
attr title  "Time Loss, histogram"
bin	-INF	0
bin	-0.5	0
bin	-0.46666666666667	0
bin	-0.43333333333333	0
bin	-0.4	0
bin	-0.36666666666667	0
bin	-0.33333333333333	0
bin	-0.3	0
bin	-0.26666666666667	0
bin	-0.23333333333333	0
bin	-0.2	0
bin	-0.16666666666667	0
bin	-0.13333333333333	0
bin	-0.1	0
bin	-0.066666666666667	0
bin	-0.033333333333333	0
bin	-6.9388939039072e-018	0
bin	0.033333333333333	0
bin	0.066666666666667	0
bin	0.1	0
bin	0.13333333333333	0
bin	0.16666666666667	0
bin	0.2	0
bin	0.23333333333333	0
bin	0.26666666666667	0
bin	0.3	0
bin	0.33333333333333	0
bin	0.36666666666667	0
bin	0.4	0
bin	0.43333333333333	0
bin	0.46666666666667	0
bin	0.5	0
statistic Dumbell.switch[1].conP[2] 	qlen:stats
field count 10132
field mean 0.28936942360837
field stddev 0.075015925165721
field sum 2931.891
field sqrsum 905.41068699999
field min 0.2
field max 0.743
attr interpolationmode  linear
attr source  QLen
attr title  "queue size, stats"
statistic Dumbell.switch[1].conP[2] 	qlen:histogram
field count 10132
field mean 0.28936942360837
field stddev 0.075015925165721
field sum 2931.891
field sqrsum 905.41068699999
field min 0.2
field max 0.743
attr interpolationmode  linear
attr source  QLen
attr title  "queue size, histogram"
bin	-INF	0
bin	0.0215	0
bin	0.045433333333333	0
bin	0.069366666666667	0
bin	0.0933	0
bin	0.11723333333333	0
bin	0.14116666666667	0
bin	0.1651	0
bin	0.18903333333333	1096
bin	0.21296666666667	1814
bin	0.2369	1585
bin	0.26083333333333	1292
bin	0.28476666666667	1077
bin	0.3087	868
bin	0.33263333333333	655
bin	0.35656666666667	490
bin	0.3805	378
bin	0.40443333333333	277
bin	0.42836666666667	199
bin	0.4523	159
bin	0.47623333333333	85
bin	0.50016666666667	59
bin	0.5241	36
bin	0.54803333333333	18
bin	0.57196666666667	23
bin	0.5959	6
bin	0.61983333333333	2
bin	0.64376666666667	6
bin	0.6677	1
bin	0.69163333333333	4
bin	0.71556666666667	1
bin	0.7395	1
statistic Dumbell.switch[1].conP[3] 	fbCnt:stats
field count 0
field mean 0
field stddev -1.#IND
field sum 0
field sqrsum 0
field min 0
field max 0
attr interpolationmode  none
attr source  fbCnt
attr title  "fb counter, stats"
statistic Dumbell.switch[1].conP[3] 	fbCnt:histogram
field count 0
field mean 0
field stddev -1.#IND
field sum 0
field sqrsum 0
field min 0
field max 0
attr interpolationmode  none
attr source  fbCnt
attr title  "fb counter, histogram"
bin	-INF	0
bin	-0.5	0
bin	-0.46666666666667	0
bin	-0.43333333333333	0
bin	-0.4	0
bin	-0.36666666666667	0
bin	-0.33333333333333	0
bin	-0.3	0
bin	-0.26666666666667	0
bin	-0.23333333333333	0
bin	-0.2	0
bin	-0.16666666666667	0
bin	-0.13333333333333	0
bin	-0.1	0
bin	-0.066666666666667	0
bin	-0.033333333333333	0
bin	-6.9388939039072e-018	0
bin	0.033333333333333	0
bin	0.066666666666667	0
bin	0.1	0
bin	0.13333333333333	0
bin	0.16666666666667	0
bin	0.2	0
bin	0.23333333333333	0
bin	0.26666666666667	0
bin	0.3	0
bin	0.33333333333333	0
bin	0.36666666666667	0
bin	0.4	0
bin	0.43333333333333	0
bin	0.46666666666667	0
bin	0.5	0
statistic Dumbell.switch[1].conP[3] 	tLoss:stats
field count 0
field mean 0
field stddev -1.#IND
field sum 0
field sqrsum 0
field min 0
field max 0
attr interpolationmode  none
attr source  LossSg
attr title  "Time Loss, stats"
statistic Dumbell.switch[1].conP[3] 	tLoss:histogram
field count 0
field mean 0
field stddev -1.#IND
field sum 0
field sqrsum 0
field min 0
field max 0
attr interpolationmode  none
attr source  LossSg
attr title  "Time Loss, histogram"
bin	-INF	0
bin	-0.5	0
bin	-0.46666666666667	0
bin	-0.43333333333333	0
bin	-0.4	0
bin	-0.36666666666667	0
bin	-0.33333333333333	0
bin	-0.3	0
bin	-0.26666666666667	0
bin	-0.23333333333333	0
bin	-0.2	0
bin	-0.16666666666667	0
bin	-0.13333333333333	0
bin	-0.1	0
bin	-0.066666666666667	0
bin	-0.033333333333333	0
bin	-6.9388939039072e-018	0
bin	0.033333333333333	0
bin	0.066666666666667	0
bin	0.1	0
bin	0.13333333333333	0
bin	0.16666666666667	0
bin	0.2	0
bin	0.23333333333333	0
bin	0.26666666666667	0
bin	0.3	0
bin	0.33333333333333	0
bin	0.36666666666667	0
bin	0.4	0
bin	0.43333333333333	0
bin	0.46666666666667	0
bin	0.5	0
statistic Dumbell.switch[1].conP[3] 	qlen:stats
field count 10047
field mean 0.28831790584254
field stddev 0.073899789162206
field sum 2896.73
field sqrsum 890.04212999999
field min 0.2
field max 0.728
attr interpolationmode  linear
attr source  QLen
attr title  "queue size, stats"
statistic Dumbell.switch[1].conP[3] 	qlen:histogram
field count 10047
field mean 0.28831790584254
field stddev 0.073899789162206
field sum 2896.73
field sqrsum 890.04212999999
field min 0.2
field max 0.728
attr interpolationmode  linear
attr source  QLen
attr title  "queue size, histogram"
bin	-INF	0
bin	0.05	0
bin	0.070133333333333	0
bin	0.090266666666667	0
bin	0.1104	0
bin	0.13053333333333	0
bin	0.15066666666667	0
bin	0.1708	0
bin	0.19093333333333	1006
bin	0.21106666666667	1560
bin	0.2312	1364
bin	0.25133333333333	1183
bin	0.27146666666667	961
bin	0.2916	876
bin	0.31173333333333	716
bin	0.33186666666667	547
bin	0.352	487
bin	0.37213333333333	396
bin	0.39226666666667	284
bin	0.4124	181
bin	0.43253333333333	133
bin	0.45266666666667	92
bin	0.4728	66
bin	0.49293333333333	61
bin	0.51306666666667	47
bin	0.5332	29
bin	0.55333333333333	19
bin	0.57346666666667	14
bin	0.5936	10
bin	0.61373333333333	7
bin	0.63386666666667	3
bin	0.654	5
statistic Dumbell.switch[1].conP[4] 	fbCnt:stats
field count 90
field mean 78.777777777778
field stddev 55.038653991613
field sum 7090
field sqrsum 828138
field min 25
field max 233
attr interpolationmode  none
attr source  fbCnt
attr title  "fb counter, stats"
statistic Dumbell.switch[1].conP[4] 	fbCnt:histogram
field count 90
field mean 78.777777777778
field stddev 55.038653991613
field sum 7090
field sqrsum 828138
field min 25
field max 233
attr interpolationmode  none
attr source  fbCnt
attr title  "fb counter, histogram"
bin	-INF	0
bin	-79	0
bin	-76	0
bin	-73	0
bin	-70	0
bin	-67	0
bin	-64	0
bin	-61	0
bin	-58	0
bin	-55	0
bin	-52	0
bin	-49	0
bin	-46	0
bin	-43	0
bin	-40	0
bin	-37	0
bin	-34	0
bin	-31	0
bin	-28	0
bin	-25	0
bin	-22	0
bin	-19	0
bin	-16	0
bin	-13	0
bin	-10	0
bin	-7	0
bin	-4	0
bin	-1	0
bin	2	0
bin	5	0
bin	8	0
bin	11	0
bin	14	0
bin	17	0
bin	20	0
bin	23	1
bin	26	4
bin	29	1
bin	32	6
bin	35	5
bin	38	6
bin	41	4
bin	44	5
bin	47	5
bin	50	5
bin	53	5
bin	56	6
bin	59	0
bin	62	4
bin	65	2
bin	68	1
bin	71	3
bin	74	1
bin	77	1
bin	80	0
bin	83	0
bin	86	0
bin	89	1
bin	92	0
bin	95	0
bin	98	0
bin	101	0
bin	104	0
bin	107	1
bin	110	2
bin	113	0
bin	116	0
bin	119	1
bin	122	0
bin	125	1
bin	128	0
bin	131	0
bin	134	1
bin	137	0
bin	140	2
bin	143	0
bin	146	1
bin	149	1
bin	152	0
bin	155	0
bin	158	1
bin	161	3
bin	164	0
bin	167	0
bin	170	0
bin	173	1
bin	176	0
bin	179	1
bin	182	2
bin	185	0
bin	188	0
bin	191	1
bin	194	3
bin	197	0
bin	200	0
bin	203	0
bin	206	0
bin	209	0
bin	212	0
bin	215	0
bin	218	0
bin	221	0
bin	224	0
bin	227	1
bin	230	0
bin	233	1
bin	236	0
bin	239	0
bin	242	0
bin	245	0
bin	248	0
bin	251	0
bin	254	0
bin	257	0
bin	260	0
bin	263	0
bin	266	0
bin	269	0
bin	272	0
bin	275	0
bin	278	0
bin	281	0
bin	284	0
bin	287	0
bin	290	0
bin	293	0
bin	296	0
bin	299	0
bin	302	0
bin	305	0
bin	308	0
bin	311	0
bin	314	0
bin	317	0
bin	320	0
bin	323	0
bin	326	0
bin	329	0
bin	332	0
bin	335	0
bin	338	0
statistic Dumbell.switch[1].conP[4] 	tLoss:stats
field count 0
field mean 0
field stddev -1.#IND
field sum 0
field sqrsum 0
field min 0
field max 0
attr interpolationmode  none
attr source  LossSg
attr title  "Time Loss, stats"
statistic Dumbell.switch[1].conP[4] 	tLoss:histogram
field count 0
field mean 0
field stddev -1.#IND
field sum 0
field sqrsum 0
field min 0
field max 0
attr interpolationmode  none
attr source  LossSg
attr title  "Time Loss, histogram"
bin	-INF	0
bin	-0.5	0
bin	-0.46666666666667	0
bin	-0.43333333333333	0
bin	-0.4	0
bin	-0.36666666666667	0
bin	-0.33333333333333	0
bin	-0.3	0
bin	-0.26666666666667	0
bin	-0.23333333333333	0
bin	-0.2	0
bin	-0.16666666666667	0
bin	-0.13333333333333	0
bin	-0.1	0
bin	-0.066666666666667	0
bin	-0.033333333333333	0
bin	-6.9388939039072e-018	0
bin	0.033333333333333	0
bin	0.066666666666667	0
bin	0.1	0
bin	0.13333333333333	0
bin	0.16666666666667	0
bin	0.2	0
bin	0.23333333333333	0
bin	0.26666666666667	0
bin	0.3	0
bin	0.33333333333333	0
bin	0.36666666666667	0
bin	0.4	0
bin	0.43333333333333	0
bin	0.46666666666667	0
bin	0.5	0
statistic Dumbell.switch[1].conP[4] 	qlen:stats
field count 42080
field mean 1.9775816777567
field stddev 0.96660699786244
field sum 83216.637000002
field sqrsum 203883.33032301
field min 0.2
field max 7.534
attr interpolationmode  linear
attr source  QLen
attr title  "queue size, stats"
statistic Dumbell.switch[1].conP[4] 	qlen:histogram
field count 42080
field mean 1.9775816777567
field stddev 0.96660699786244
field sum 83216.637000002
field sqrsum 203883.33032301
field min 0.2
field max 7.534
attr interpolationmode  linear
attr source  QLen
attr title  "queue size, histogram"
bin	-INF	0
bin	-2.8225	0
bin	-2.4151	0
bin	-2.0077	0
bin	-1.6003	0
bin	-1.1929	0
bin	-0.7855	0
bin	-0.3781	0
bin	0.029300000000001	1457
bin	0.4367	2569
bin	0.8441	5097
bin	1.2515	7396
bin	1.6589	7605
bin	2.0663	7637
bin	2.4737	5158
bin	2.8811	1842
bin	3.2885	1044
bin	3.6959	798
bin	4.1033	527
bin	4.5107	364
bin	4.9181	195
bin	5.3255	137
bin	5.7329	175
bin	6.1403	61
bin	6.5477	9
bin	6.9551	7
bin	7.3625	2
bin	7.7699	0
bin	8.1773	0
bin	8.5847	0
bin	8.9921	0
bin	9.3995	0
